CSEE-FS/HF、LF.DAT
(POWERFLOW,CASEID=LF1,PROJECT=PSD)
/PF_MAP,FILE = LF1.MAP\         
/NEW_BASE,FILE = LF1.BSE\       
/MVA_BASE = 100\                  
/P_OUTPUT_LIST,FULL\             
/RPT_SORT=ZONE\                  
/P_ANALYSIS,LEVEL=4\             
/NETWORK_DATA\                   

.................................. 直流数据 ....................................
...直流1数据


B     B08     525.1A              450                    1.0
L     B08     525. B02     525.              .0001                  
B     DP02    525.1A              450                    1.0           
L     DP02    525. B09     525.              .0001 
BD    DP01-1  210.      2 350.   5. 120.     5000.B08     525. 500.
BD    DP02-1  199.      2 350.7.    120.     5000.DP02    525. 500.
BD    DN01-1  210.      2 290.   5. 120.     5000.B08     525. 500.
BD    DN02-1  199.      2 290.7.    120.     5000.DP02    525. 500.
LD    DP01-1  210.1DP02-1  199.  50005.    800.        R500. 500. 15. 17.
LD    DN01-1  210.1DN02-1  199.  50005.    785.37      R500. 500. 15. 17.
T     B08     525. DP01-1  210.  3000       .006              525. 210.4        
T     B08     525. DN01-1  210.  3000       .006              525. 210.4        
T     DP02    525. DP02-1  199.  3000       .006              525. 199.4     
T     DP02    525. DN02-1  199.  3000       .006              525. 199.4        
R     B08     525.1DP01-1  210.  DP01-1  210.702.1488.1 0
R     B08     525.1DN01-1  210.  DN01-1  210.702.1488.1 0
R     DP02    525.1DP02-1  199.  DP02-1  199.688.5484.5 0
R     DP02    525.1DN02-1  199.  DN02-1  199.688.5484.5 0
BS    B09     525.D                   99999999.9999.-9999  1.
.

...直流2数据
B     B10     525.1A              450                    1.0
L     B10     525. B05     525.              .0001                  
B     DP04    525.1A              450                    1.0            
L     DP04    525. B11     525.              .0001 
BD    DP03-1  210.      2 350.   5. 120.     5000.B10     525. 500.
BD    DP04-1  199.      2 350.7.    120.     5000.DP04    525. 500.
BD    DN03-1  210.      2 290.   5. 120.     5000.B10     525. 500.
BD    DN04-1  199.      2 290.7.    120.     5000.DP04    525. 500.
LD    DP03-1  210.1DP04-1  199.  50005.    800.        R400. 500. 15. 17.
LD    DN03-1  210.1DN04-1  199.  50005.    785.37      R400. 500. 15. 17.
T     B10     525. DP03-1  210.  3000       .006              525. 210.4        
T     B10     525. DN03-1  210.  3000       .006              525. 210.4        
T     DP04    525. DP04-1  199.  3000       .006              525. 199.4     
T     DP04    525. DN04-1  199.  3000       .006              525. 199.4        
R     B10     525.1DP03-1  210.  DP03-1  210.7021948819 0
R     B10     525.1DN03-1  210.  DN03-1  210.702.1488.1 0
R     DP04    525.1DP04-1  199.  DP04-1  199.688.5484.5 0
R     DP04    525.1DN04-1  199.  DN04-1  199.688.5484.5 0
BS    B11     525.D                   99999999.9999.-9999  1.

...直流3数据

B     B12     525.1A              440                    1.0
L     B12     525. B07     525.              .0001                  
B     DP06    525.1A              450                    1.0            
L     DP06    525. B13     525.              .0001 
BD    DP05-1  210.      2 350.   5. 120.     5000.B12     525. 500.
BD    DP06-1  199.      2 350.7.    120.     5000.DP06    525. 500.
BD    DN05-1  210.      2 290.   5. 120.     5000.B12     525. 500.
BD    DN06-1  199.      2 290.7.    120.     5000.DP06    525. 500.
LD    DP05-1  210.1DP06-1  199.  50005.    800.        R400. 500. 15. 17.
LD    DN05-1  210.1DN06-1  199.  50005.    785.37      R400. 500. 15. 17.
T     B12     525. DP05-1  210.  3000       .006              525. 210.4        
T     B12     525. DN05-1  210.  3000       .006              525. 210.4        
T     DP06    525. DP06-1  199.  3000       .006              525. 199.4     
T     DP06    525. DN06-1  199.  3000       .006              525. 199.4        
R     B12     525.1DP05-1  210.  DP05-1  210.7021948819 0
R     B12     525.1DN05-1  210.  DN05-1  210.702.1488.1 0
R     DP06    525.1DP06-1  199.  DP06-1  199.688.5484.5 0
R     DP06    525.1DN06-1  199.  DN06-1  199.688.5484.5 0
BS    B13     525.D                   99999999.9999.-9999  1.


.................................. 发电机方式....................................
...............50%
BQ    TP01    20. 1B                  600.500.  300.     1.0                         
BS    TP02    20. 1B                  600.500. 9999.-99991.0           
BQ    TP03    20. 1B                  1000600. 600.      1.0            
BQ    TP04    20. 1B                  600.300.  300.     1.0                         
BQ    HP05    20. 1B                  1000750. 600.      1.0                                 
BQ    HP06    20. 1B                  1000650. 500.      1.0                      
BQ    TP07    20. 1B                  600.400. 250.      1.0               
                                                                
...............60%
.
.BQ    TP03    20. 1B                  1000600. 600.      1.0     
.BQ    TP04    20. 1B                  600.300.  300.     1.0                 
.BQ    HP05    20. 1B                  1000850. 600.      1.0                         
.BS    HP06    20. 1B                  1000800. 9999.-99991.0            
.BQ    TP07    20. 1B                  600.400. 250.      1.0     
.
...............70%
.BQ    TP04    20. 1B                  600.300.  300.     1.0                 
.BQ    HP05    20. 1B                  1000850. 600.      1.0                         
.BS    HP06    20. 1B                  1000700. 9999.-99991.0            
.BQ    TP07    20. 1B                  600.400. 250.      1.0   

...............80%
       
.BQ    HP05    20. 1B                  1150750. 600. -600 1.0                        
.BS    HP06    20. 1B                  1150650. 9999.-99991.0           
.......................出力50%
B     WT01-1   .69FH                  350.200.  
B     WT03-1   .69FH                  350.190.  
B     WT05-1   .69FH                  350.190. 
B     WT01-2   .69FH                  350.190.  
B     WT03-2   .69FH                  350.190.  
B     WT05-2   .69FH                  350.190.   
B     WT01-3   .69FH                  350.190.  
B     WT03-3   .69FH                  350.190.  
B     WT05-3   .69FH                  350.190.  
B     PV01-1    .4FH                  350.190.  
B     PV03-1    .4FH                  350.190.  
B     PV05-1    .4FH                  350.190.  
B     PV01-2    .4FH                  350.190.  
B     PV03-2    .4FH                  350.190.  
B     PV05-2    .4FH                  350.190.  
B     PV01-3    .4FH                  350.190.  
B     PV03-3    .4FH                  350.190.  
B     PV05-3    .4FH                  350.190.  
B     PV03-4    .4FH                  300.190.  
B     PV03-5    .4FH                  300.190.  
.
.......................出力60%
.B     WT01-1   .69FH                  350.230.  
.B     WT03-1   .69FH                  350.220.  
.B     WT05-1   .69FH                  350.230. 
.B     WT01-2   .69FH                  350.220.  
.B     WT03-2   .69FH                  350.230.  
.B     WT05-2   .69FH                  350.220.   
.B     WT01-3   .69FH                  350.220.  
.B     WT03-3   .69FH                  350.240.  
.B     WT05-3   .69FH                  350.220.  
.B     PV01-1    .4FH                  350.240.  
.B     PV03-1    .4FH                  350.220.  
.B     PV05-1    .4FH                  350.250.  
.B     PV01-2    .4FH                  350.240.  
.B     PV03-2    .4FH                  350.220.  
.B     PV05-2    .4FH                  350.220.  
.B     PV01-3    .4FH                  350.250.  
.B     PV03-3    .4FH                  350.220.  
.B     PV05-3    .4FH                  350.240.  
.B     PV03-4    .4FH                  300.230.  
.B     PV03-5    .4FH                  300.240.  
.
......................出力70%
.B     WT01-1   .69FH                  350.260.  
.B     WT03-1   .69FH                  350.260.  
.B     WT05-1   .69FH                  350.260. 
.B     WT01-2   .69FH                  350.260.  
.B     WT03-2   .69FH                  350.260.  
.B     WT05-2   .69FH                  350.260.   
.B     WT01-3   .69FH                  350.260.  
.B     WT03-3   .69FH                  350.260.  
.B     WT05-3   .69FH                  350.260.  
.B     PV01-1    .4FH                  350.260.  
.B     PV03-1    .4FH                  350.260.  
.B     PV05-1    .4FH                  350.260.  
.B     PV01-2    .4FH                  350.260.  
.B     PV03-2    .4FH                  350.260.  
.B     PV05-2    .4FH                  350.260.  
.B     PV01-3    .4FH                  350.260.  
.B     PV03-3    .4FH                  350.260.  
.B     PV05-3    .4FH                  350.260.  
.B     PV03-4    .4FH                  300.260.  
.B     PV03-5    .4FH                  300.260.  

.......................出力80%
.B     WT01-1   .69FH                  350.300.  
.B     WT03-1   .69FH                  350.300.  
.B     WT05-1   .69FH                  350.300. 
.B     WT01-2   .69FH                  350.300.  
.B     WT03-2   .69FH                  350.300.  
.B     WT05-2   .69FH                  350.300.   
.B     WT01-3   .69FH                  350.300.  
.B     WT03-3   .69FH                  350.300.  
.B     WT05-3   .69FH                  350.300.  
.B     PV01-1    .4FH                  350.300.  
.B     PV03-1    .4FH                  350.300.  
.B     PV05-1    .4FH                  350.300.  
.B     PV01-2    .4FH                  350.300.  
.B     PV03-2    .4FH                  350.300.  
.B     PV05-2    .4FH                  350.300.  
.B     PV01-3    .4FH                  350.300.  
.B     PV03-3    .4FH                  350.300.  
.B     PV05-3    .4FH                  350.300.  
.B     PV03-4    .4FH                  300.300.  
.B     PV03-5    .4FH                  300.300. 


   
.................................. 变压器中性节点...................................
.
B     T3-01     1.FH                                              
B     T3-02     1.FH                                   
B     T3-03     1.FH                                              
B     T3-04     1.FH  
B     T3-05     1.FH  
B     T3-06     1.FH  
B     T3-07     1.FH  
B     T3-08     1.FH  
B     T3-09     1.FH  
B     T3-10     1.FH                                            
B     T3-11     1.FH                                            
B     T3-12     1.FH         
B     T3-13     1.FH  
B     T3-14     1.FH  
B     T3-15     1.FH  

................................. 新能源升压变35kV节点....................................
B     B14     38.5FH              60                  
B     B15     38.5FH              60                  
B     B16     38.5FH              60  
B     B17     38.5FH              60 
B     B18     38.5FH              60 
B     B19     38.5FH              60 
B     B20     38.5FH              60 
B     B21     38.5FH              60 
B     B22     38.5FH              60 
B     B23     38.5FH              60 
B     B24     38.5FH              60 
B     B25     38.5FH              60 
B     B26     38.5FH              60 
B     B27     38.5FH              60 
B     B28     38.5FH              60 
B     B29     38.5FH              60 
B     B30     38.5FH              60 
B     B31     38.5FH              60 
B     B32     38.5FH              60 
B     B33     38.5FH              60       

............................主网三绕组变压器35kV节点，无功补偿 方式1/2...........................................
B     B47     37  FH              
B     B48     37  FH              
B     B49     37  FH              125
B     B50     37  FH              
B     B51     37  FH              
B     B52     37  FH               
B     B53     37  FH              
B     B54     37  FH              
B     B55     37  FH              


B     B62     37  FH              170
B     B63     37  FH              35 
B     B64     37  FH              80
B     B65     37  FH              72 
B     B66     37  FH              110
B     B67     37  FH              351
.


.............................主网三绕组变压器35kV节点，无功补偿 方式3/4...........................................
.B     B47     37  FH               
.B     B48     37  FH               
.B     B49     37  FH              195 
.B     B50     37  FH              95 
.B     B51     37  FH               
.B     B52     37  FH               
.B     B53     37  FH               
.B     B54     37  FH               
.B     B55     37  FH              40 


.B     B62     37  FH              240
.B     B63     37  FH              150 
.B     B64     37  FH              240 
.B     B65     37  FH              132 
.B     B66     37  FH              170 
.B     B67     37  FH              350 
.
         


.................................. 新能源汇集点220kV.................................... 
                                                                                                                                                                                                     
B     B34     230.FH  
B     B35     230.FH  
B     B36     230.FH  
B     B37     230.FH                                              
B     B38     230.FH                                   
B     B39     230.FH                                              
B     B40     230.FH  
B     B41     230.FH  
B     B42     230.FH  
B     B43     230.FH  
B     B44     230.FH  
B     B45     230.FH  
B     B46     230.FH  

............................... 500kV母线节点..............................

B     B01     525.1B                       
B     B02     525.1B                           
B     B03     525.1B                              
B     B04     525.1B                      
B     B05     525.1B                              
B     B06     525.1B                                
B     B07     525.1B

............负荷220kV节点.....................
B     B56     230.1B1100.360.                                      
B     B57     230.1B700. 220.                                          
B     B58     230.1B900. 300.                                    
B     B59     230.1B429.178.                                       
B     B60     230.1B 500.170.                                                                                                       
B     B61     230.1B1223.400.                                            
                            
                                                                                                                                                                                              
         
              .
............................... 变压器........................

.....................................常规机组....................

....................................50%渗透率............
T     TP01     20. B01     525.  780. .00026.01064              20. 525.      T2-01 
T     TP02     20. B02     525.  780. .00026.01064              20. 525.      T2-02
T     TP03     20. B03     525.  1400 .00026.01064              20. 525.      T2-03
T     TP04     20. B04     525.  780. .00026.01064              20. 525.      T2-04 
T     HP05     20. B05     525.  1400 .00026.01064              20. 525.      T2-05 
T     HP06     20. B06     525.  1400 .00026.01064              20. 525.      T2-06 
T     TP07     20. B07     525.  780. .00026.01064              20. 525.      T2-07 

....................................60%渗透率............
 
.T     TP03     20. B03     525.  1400 .00026.01064              20. 525.      T2-03        
.T     TP04     20. B04     525.  780. .00026.01064              20. 525.      T2-04        
.T     HP05     20. B05     525.  1400 .00026.01064              20. 525.      T2-05        
.T     HP06     20. B06     525.  1400 .00026.01064              20. 525.      T2-06        
.T     TP07     20. B07     525.  780. .00026.01064              20. 525.      T2-07        
                                                                         
....................................70%渗透率..........                               

.T     TP04     20. B04     525.  780. .00026.01064              20. 525.      T2-04       
.T     HP05     20. B05     525.  1400 .00026.01064              20. 525.      T2-05     
.T     HP06     20. B06     525.  1400 .00026.01064              20. 525.      T2-06      
.T     TP07     20. B07     525.  780. .00026.01064              20. 525.      T2-07   

....................................80%渗透率..........  
.T     HP05     20. B05     525.  1400 .00016.00034              20. 525.      T2-17        
.T     HP06     20. B06     525.  1400 .00016.00034              20. 525.      T2-18      
                                       

....................................新能源机组....................

T     WT01-1   .69 B14     38.5  350.       .01806              .69 38.5      T2-08
T     WT01-2   .69 B17     38.5  350.       .01806              .69 38.5      T2-09
T     WT01-3   .69 B20     38.5  350.       .01806              .69 38.5      T2-10
T     WT03-1   .69 B15     38.5  350.       .01806              .69 38.5      T2-11
T     WT03-2   .69 B18     38.5  350.       .01806              .69 38.5      T2-12
T     WT03-3   .69 B21     38.5  350.       .01806              .69 38.5      T2-13
T     WT05-1   .69 B16     38.5  350.       .01806              .69 38.5      T2-14
T     WT05-2   .69 B19     38.5  350.       .01806              .69 38.5      T2-15
T     WT05-3   .69 B22     38.5  350.       .01806              .69 38.5      T2-16
T     PV01-1    .4 B23     38.5  350.       .02167               .4 38.5      T2-17
T     PV01-2    .4 B26     38.5  350.       .02167               .4 38.5      T2-18
T     PV01-3    .4 B29     38.5  350.       .02167               .4 38.5      T2-19
T     PV03-1    .4 B24     38.5  350.       .02167               .4 38.5      T2-20
T     PV03-2    .4 B27     38.5  350.       .02167               .4 38.5      T2-21
T     PV03-3    .4 B30     38.5  350.       .02167               .4 38.5      T2-22
T     PV03-4    .4 B32     38.5  350.       .02167               .4 38.5      T2-23
T     PV03-5    .4 B33     38.5  350.       .02167               .4 38.5      T2-24
T     PV05-1    .4 B25     38.5  350.       .02167               .4 38.5      T2-25
T     PV05-2    .4 B28     38.5  350.       .02167               .4 38.5      T2-26
T     PV05-3    .4 B31     38.5  350.       .02167               .4 38.5      T2-27


T     B14     38.5  B34     230  350.       .035              38.5  230.      T2-28
T     B15     38.5  B35     230  350.       .035              38.5  230.      T2-29
T     B16     38.5  B36     230  350.       .035              38.5  230.      T2-30
T     B17     38.5  B34     230  350.       .035              38.5  230.      T2-31
T     B18     38.5  B35     230  350.       .035              38.5  230.      T2-32
T     B19     38.5  B36     230  350.       .035              38.5  230.      T2-33
T     B20     38.5  B37     230  350.       .035              38.5  230.      T2-34
T     B21     38.5  B38     230  350.       .035              38.5  230.      T2-35
T     B22     38.5  B39     230  350.       .035              38.5  230.      T2-36
T     B23     38.5  B37     230  350.       .035              38.5  230.      T2-37
T     B24     38.5  B38     230  350.       .035              38.5  230.      T2-38
T     B25     38.5  B39     230  350.       .035              38.5  230.      T2-39
T     B26     38.5  B40     230  350.       .035              38.5  230.      T2-40
T     B27     38.5  B41     230  350.       .035              38.5  230.      T2-41
T     B28     38.5  B42     230  350.       .035              38.5  230.      T2-42
T     B29     38.5  B40     230  350.       .035              38.5  230.      T2-43
T     B30     38.5  B41     230  350.       .035              38.5  230.      T2-44
T     B31     38.5  B42     230  350.       .035              38.5  230.      T2-45
T     B32     38.5  B43     230  350.       .035              38.5  230.      T2-46
T     B33     38.5  B43     230  350.       .035              38.5  230.      T2-47
    


T     T3-01     1. B01     525.1 1000 .00005 .0157               1. 525.
T     T3-01     1. B44     230.1 1000 .00005-00158               1. 230.
T     T3-01     1. B47     37. 1 360. .00021.02668               1. 37. 


T     T3-02     1. B01     525.1 1000 .00005 .0157               1. 525.
T     T3-02     1. B44     230.1 1000 .00005-00158               1. 230.
T     T3-02     1. B48     37. 1 360. .00021.02668               1. 37. 


T     T3-03     1. B01     525.1 1000 .00005 .0157               1. 525.
T     T3-03     1. B44     230.1 1000 .00005-00158               1. 230.
T     T3-03     1. B49     37. 1 360. .00021.02668               1. 37. 


T     T3-04     1. B03     525.1 1000 .00005 .0157               1. 525.
T     T3-04     1. B45     230.1 1000 .00005-00158               1. 230.
T     T3-04     1. B50     37. 1 360. .00021.02668               1. 37. 


T     T3-05     1. B03     525.1 1000 .00005 .0157               1. 525.
T     T3-05     1. B45     230.1 1000 .00005-00158               1. 230.
T     T3-05     1. B51     37. 1 360. .00021.02668               1. 37. 


T     T3-06     1. B03     525.1 1000 .00005 .0157               1. 525.
T     T3-06     1. B45     230.1 1000 .00005-00158               1. 230.
T     T3-06     1. B52     37. 1 360. .00021.02668               1. 37. 


T     T3-07     1. B05     525.1 1000 .00005 .0157               1. 525.
T     T3-07     1. B46     230.1 1000 .00005-00158               1. 230.
T     T3-07     1. B53     37. 1 360. .00021.02668               1. 37. 


T     T3-08     1. B05     525.1 1000 .00005 .0157               1. 525.
T     T3-08     1. B46     230.1 1000 .00005-00158               1. 230.
T     T3-08     1. B54     37. 1 360. .00021.02668               1. 37. 


T     T3-09     1. B05     525.1 1000 .00005 .0157               1. 525.
T     T3-09     1. B46     230.1 1000 .00005-00158               1. 230.
T     T3-09     1. B55     37. 1 360. .00021.02668               1. 37. 


T     B01     525. T3-10     1.1 1000 .00008.02143             525.  1.
T     B56     230. T3-10     1.1 1000 .00005-.0021             230.  1.
T     B62      37. T3-10     1.1 300. .00047.04093              37.  1.

T     B02     525. T3-11     1.1 1000 .00008.02143             525.  1.
T     B57     230. T3-11     1.1 1000 .00005-.0021             230.  1.
T     B63      37. T3-11     1.1 300. .00047.04093              37.  1.

T     B03     525. T3-12     1.1 1000 .00008.02143             525.  1.
T     B58     230. T3-12     1.1 1000 .00005-.0021             230.  1.
T     B64      37. T3-12     1.1 300. .00047.04093              37.  1.

T     B04     525. T3-13     1.1 1000 .00008.02143             525.  1.
T     B59     230. T3-13     1.1 1000 .00005-.0021             230.  1.
T     B65      37. T3-13     1.1 300. .00047.04093              37.  1.

T     B05     525. T3-14     1.1 1000 .00008.02143             525.  1.
T     B60     230. T3-14     1.1 1000 .00005-.0021             230.  1.
T     B66      37. T3-14     1.1 300. .00047.04093              37.  1.

T     B07     525. T3-15     1.1 1000 .00008.02143             525.  1.
T     B61     230. T3-15     1.1 1000 .00005-.0021             230.  1.
T     B67      37. T3-15     1.1 300. .00047.04093              37.  1.


............................... 500kV线路支路  ...............................
.
L     B01     525. B02     525.       .00005.00168      .03788             
L     B01     525. B03     525.       .00025.00158       .1997             
L     B01     525. B04     525.        .0007 .0092      .10159             
L     B02     525. B04     525.       .00057.00799      .44622             
L     B04     525. B06     525.1      .00011.00153      .00287             
L     B04     525. B06     525.2      .00011.00153      .00287             
L     B03     525. B05     525.       .00007.00095      .00179             
L     B05     525. B06     525.       .00005.00166      .00125              
L     B06     525. B07     525.1       .0004 .0055       .0102         
L     B06     525. B07     525.2       .0004 .0055       .0102           
L     B02     525. B07     525.       .00025.00358       .1997    


............................... 220kV线路支路  ...............................

L     B34     230. B44     230.1 1596 .00186.01307      .0241224.6              
L     B35     230. B45     230.1 1596 .00186.01307      .0241224.6       
L     B36     230. B46     230.1 1596 .00186.01307      .0241224.6       
L     B34     230. B44     230.2 1596 .00186.01307      .0241224.6       
L     B35     230. B45     230.2 1596 .00186.01307      .0241224.6       
L     B36     230. B46     230.2 1596 .00186.01307      .0241224.6       
L     B37     230. B44     230.1 1596 .00186.01307      .0241224.6 
L     B38     230. B45     230.1 1596 .00186.01307      .0241224.6 
L     B39     230. B46     230.1 1596 .00186.01307      .0241224.6 
L     B37     230. B44     230.2 1596 .00186.01307      .0241224.6 
L     B38     230. B45     230.2 1596 .00186.01307      .0241224.6 
L     B39     230. B46     230.2 1596 .00186.01307      .0241224.6 
L     B40     230. B44     230.1 1596 .00186.01307      .0241224.6 
L     B41     230. B45     230.1 1596 .00186.01307      .0241224.6 
L     B42     230. B46     230.1 1596 .00186.01307      .0241224.6                
L     B40     230. B44     230.2 1596 .00186.01307      .0241224.6       
L     B41     230. B45     230.2 1596 .00186.01307      .0241224.6       
L     B42     230. B46     230.2 1596 .00186.01307      .0241224.6       
L     B43     230. B45     230.1 1596 .00186.01307      .0241224.6       
L     B43     230. B45     230.2 1596 .00186.01307      .0241224.6   

............................... NO GROUP END   ..............................

/CHANGES\                        
/SOLUTION\                       
>AI_CONTROL= MON<                 
>LTC= ON<                         
>SOL_ITER,DECOUPLED=30,CURRENT=0,NEWTON=30,OPTIM=0<
.>TOLERANCE,BUSV=0.005,AIPOWER=0.001,TX=0.001,Q=0.005,OPCUT=0.001<
(END)                             




